1

                    Execution started at 20130430.105059         



                    ---------------------------------------
                                     SWAN
                    SIMULATION OF WAVES IN NEAR SHORE AREAS
                             VERSION NUMBER 40.72ABCDE          
                    ---------------------------------------


    
 $*************HEADING****************************************
    
 $
    
 PROJ 'a33curs' 'A33'
    
 $
    
 $ Test current-induced shoaling and refraction in case of
    
 $ slanting current
    
 $
    
 $ --|--------------------------------------------------------------|--
    
 $   | This SWAN input file is part of the bench mark tests for     |
    
 $   | SWAN.                                                        |
    
 $ --|--------------------------------------------------------------|--
    
 $
    
 $***********MODEL INPUT*********************************
    
 $
    
 CGRID 0. 0. 0. 16000. 4000. 25 100 SECTOR 60. 140. 80 0.05 0.25 40
 Resolution in sigma-space: df/f =  0.0411
    
 $
    
 INPGRID BOTTOM 0. 0. 0. 1 1 16000. 4000.
    
 READINP BOTTOM   1. 'a33curs.bot' 1 0 FREE
    
 READINP CURRENT  1. 'a33curs.cur' 1 1 FREE
 **  Heading lines file a33curs.cur **
 -> Slanting current                                                                
    
 $
    
 BOU SHAPE GAUSS 0.01 PEAK DSPR POWER
    
 BOUN SIDE S CCW CON PAR 1. 10. 120. 500.
    
 $
    
 OFF BREA
    
 OFF QUAD
    
 $
    
 $
    
 $************ OUTPUT REQUESTS *************************
    
 $
    
 CURVE 'LINE1' 8000. 0.  100  8000. 4000.
    
 TABLE 'LINE1' HEAD DIST HS TM01 DIR DEP RTP DSPR
    
 TABLE 'LINE1' NOHEAD 'a33cur01.tab' DIST HS TM01 DIR DEP RTP
    
 $
    
 POINTS 'loc' FILE 'a33curs.loc'
    
 SPEC   'loc' SPEC1D 'a33cur01.spc'
    
 TABLE  'loc' HEAD   'a33cur01.tbl' HS RTP TM01 TM02 FSPR
    
 $
    
 TEST 1,0
    
 COMPUTE
 ** Warning          : Limiter is de-activated in case of no quadruplets

----------------------------------------------------------------
                  COMPUTATIONAL PART OF SWAN
----------------------------------------------------------------

 Gridresolution       : MXC              26 MYC            101
                      : MCGRD          2627
                      : MSC              41 MDC             81
                      : MTC               1
                      : NSTATC            0 ITERMX          50
 Propagation flags    : ITFRE             1 IREFR            1
 Source term flags    : IBOT              0 ISURF            0
                      : IWCAP             1 IWIND            0
                      : ITRIAD            0 IQUAD            0
 Spatial step         : DX       0.6400E+03 DY      0.4000E+02
 Spectral bin         : df/f     0.4106E-01 DDIR    0.1000E+01
 Physical constants   : GRAV     0.9810E+01 RHO     0.1025E+04
 Wind input           : WSPEED   0.0000E+00 DIR     0.0000E+00
 Tail parameters      : E(f)     0.4000E+01 E(k)    0.2500E+01
                      : A(f)     0.5000E+01 A(k)    0.3000E+01
 Accuracy parameters  : DREL     0.2000E-01 NPNTS   0.9800E+02
                      : DHOVAL   0.2000E-01 DTOVAL  0.2000E-01
                      : GRWMX    0.1000E+21
 Drying/flooding      : LEVEL    0.0000E+00 DEPMIN  0.5000E-01
 The Cartesian convention for wind and wave directions is used
 Scheme for geographic propagation is SORDUP
 Scheme geogr. space  : PROPSC            2 ICMAX            5
 Scheme spectral space: CSS      0.5000E+00 CDD     0.5000E+00
 Solver is SIP
                      : EPS2     0.1000E-03 OUTPUT           0
                      : NITER            20
 Current is  on
 Quadruplets is off
 Triads is off
 Bottom friction is off
 W-cap Komen (`84)    : EMPCOF   0.2360E-04 APM     0.3020E-02
 Surf breaking is off
 Set-up is off
 Diffraction is off
 Janssen (`89,`90)    : ALPHA    0.1000E-01 KAPPA   0.4100E+00
 Janssen (`89,`90)    : RHOA     0.1280E+01 RHOW    0.1025E+04
 
 1st and 2nd gen. wind: CF10     0.1880E+03 CF20    0.5900E+00
                      : CF30     0.1200E+00 CF40    0.2500E+03
                      : CF50     0.2300E-02 CF60   -0.2230E+00
                      : CF70     0.0000E+00 CF80   -0.5600E+00
                      : RHOAW    0.1249E-02 EDMLPM  0.3600E-02
                      : CDRAG    0.1230E-02 UMIN    0.1000E+01
                      : LIM_PM   0.1300E+00
 
 iteration    1; sweep 1
 iteration    1; sweep 2
 iteration    1; sweep 3
 iteration    1; sweep 4
 accuracy OK in   0.99 % of wet grid points ( 98.00 % required)

 iteration    2; sweep 1
 iteration    2; sweep 2
 iteration    2; sweep 3
 iteration    2; sweep 4
 accuracy OK in  98.93 % of wet grid points ( 98.00 % required)

 
%
%
% Run:A33   Table:LINE1             SWAN version:40.72ABCDE
%
%       Dist          Hsig          Tm01          Dir           Depth         RTpeak        Dspr     
%       [m]           [m]           [sec]         [degr]        [m]           [sec]         [degr]   
%
           0.       1.00013       10.0000       120.000    10000.0000       10.0918        2.5591 
          40.       1.00057        9.9996       119.957    10000.0000       10.0918        2.5561 
          80.       1.00101        9.9991       119.915    10000.0000       10.0918        2.5522 
         120.       1.00145        9.9987       119.873    10000.0000       10.0918        2.5492 
         160.       1.00188        9.9982       119.830    10000.0000       10.0918        2.5457 
         200.       1.00232        9.9978       119.788    10000.0000       10.0918        2.5422 
         240.       1.00276        9.9973       119.746    10000.0000       10.0918        2.5390 
         280.       1.00320        9.9969       119.704    10000.0000       10.0918        2.5352 
         320.       1.00364        9.9964       119.662    10000.0000       10.0918        2.5320 
         360.       1.00409        9.9960       119.620    10000.0000       10.0918        2.5284 
         400.       1.00453        9.9956       119.579    10000.0000       10.0918        2.5252 
         440.       1.00497        9.9951       119.537    10000.0000       10.0918        2.5218 
         480.       1.00541        9.9947       119.496    10000.0000       10.0918        2.5183 
         520.       1.00586        9.9942       119.454    10000.0000       10.0918        2.5152 
         560.       1.00630        9.9938       119.413    10000.0000       10.0918        2.5117 
         600.       1.00675        9.9934       119.372    10000.0000       10.0918        2.5084 
         640.       1.00719        9.9929       119.331    10000.0000       10.0918        2.5056 
         680.       1.00764        9.9925       119.290    10000.0000       10.0918        2.5019 
         720.       1.00809        9.9920       119.249    10000.0000       10.0918        2.4988 
         760.       1.00854        9.9916       119.208    10000.0000       10.0918        2.4956 
         800.       1.00898        9.9912       119.167    10000.0000        9.6938        2.4925 
         840.       1.00943        9.9907       119.126    10000.0000        9.6938        2.4893 
         880.       1.00988        9.9903       119.086    10000.0000        9.6938        2.4861 
         920.       1.01033        9.9899       119.045    10000.0000        9.6938        2.4834 
         960.       1.01078        9.9894       119.005    10000.0000        9.6938        2.4802 
        1000.       1.01124        9.9890       118.965    10000.0000        9.6938        2.4770 
        1040.       1.01169        9.9885       118.925    10000.0000        9.6938        2.4740 
        1080.       1.01214        9.9881       118.885    10000.0000        9.6938        2.4707 
        1120.       1.01259        9.9877       118.845    10000.0000        9.6938        2.4676 
        1160.       1.01305        9.9872       118.805    10000.0000        9.6938        2.4645 
        1200.       1.01350        9.9868       118.765    10000.0000        9.6938        2.4618 
        1240.       1.01395        9.9864       118.725    10000.0000        9.6938        2.4589 
        1280.       1.01441        9.9859       118.685    10000.0000        9.6938        2.4558 
        1320.       1.01487        9.9855       118.646    10000.0000        9.6938        2.4529 
        1360.       1.01532        9.9851       118.606    10000.0000        9.6938        2.4498 
        1400.       1.01578        9.9846       118.567    10000.0000        9.6938        2.4470 
        1440.       1.01624        9.9842       118.528    10000.0000        9.6938        2.4444 
        1480.       1.01670        9.9837       118.489    10000.0000        9.6938        2.4408 
        1520.       1.01715        9.9833       118.450    10000.0000        9.6938        2.4386 
        1560.       1.01761        9.9829       118.411    10000.0000        9.6938        2.4355 
        1600.       1.01807        9.9824       118.372    10000.0000        9.6938        2.4328 
        1640.       1.01854        9.9820       118.333    10000.0000        9.6938        2.4299 
        1680.       1.01900        9.9816       118.294    10000.0000        9.6938        2.4269 
        1720.       1.01946        9.9812       118.255    10000.0000        9.6938        2.4244 
        1760.       1.01992        9.9807       118.217    10000.0000        9.6938        2.4215 
        1800.       1.02039        9.9803       118.178    10000.0000        9.6938        2.4186 
        1840.       1.02085        9.9799       118.140    10000.0000        9.6938        2.4161 
        1880.       1.02132        9.9794       118.102    10000.0000        9.6938        2.4134 
        1920.       1.02178        9.9790       118.063    10000.0000        9.6938        2.4102 
        1960.       1.02225        9.9786       118.025    10000.0000        9.6938        2.4082 
        2000.       1.02272        9.9781       117.987    10000.0000        9.6938        2.4049 
        2040.       1.02318        9.9777       117.949    10000.0000        9.6938        2.4026 
        2080.       1.02365        9.9773       117.911    10000.0000        9.6938        2.4000 
        2120.       1.02412        9.9768       117.874    10000.0000        9.6938        2.3976 
        2160.       1.02459        9.9764       117.836    10000.0000        9.6938        2.3949 
        2200.       1.02507        9.9760       117.798    10000.0000        9.6938        2.3924 
        2240.       1.02554        9.9756       117.761    10000.0000        9.6938        2.3897 
        2280.       1.02601        9.9751       117.723    10000.0000        9.6938        2.3870 
        2320.       1.02649        9.9747       117.686    10000.0000        9.6938        2.3844 
        2360.       1.02696        9.9743       117.648    10000.0000        9.6938        2.3819 
        2400.       1.02744        9.9739       117.611    10000.0000        9.6938        2.3797 
        2440.       1.02791        9.9734       117.574    10000.0000        9.6938        2.3769 
        2480.       1.02839        9.9730       117.537    10000.0000        9.6938        2.3745 
        2520.       1.02887        9.9726       117.500    10000.0000        9.6938        2.3722 
        2560.       1.02935        9.9722       117.463    10000.0000        9.6938        2.3695 
        2600.       1.02983        9.9718       117.426    10000.0000        9.6938        2.3672 
        2640.       1.03031        9.9713       117.390    10000.0000        9.6938        2.3650 
        2680.       1.03079        9.9709       117.353    10000.0000        9.6938        2.3625 
        2720.       1.03127        9.9705       117.316    10000.0000        9.6938        2.3602 
        2760.       1.03176        9.9701       117.280    10000.0000        9.6938        2.3577 
        2800.       1.03224        9.9696       117.244    10000.0000        9.6938        2.3551 
        2840.       1.03273        9.9692       117.207    10000.0000        9.6938        2.3528 
        2880.       1.03321        9.9688       117.171    10000.0000        9.6938        2.3504 
        2920.       1.03370        9.9684       117.135    10000.0000        9.6938        2.3479 
        2960.       1.03418        9.9680       117.099    10000.0000        9.6938        2.3459 
        3000.       1.03467        9.9675       117.063    10000.0000        9.6938        2.3432 
        3040.       1.03516        9.9671       117.027    10000.0000        9.6938        2.3413 
        3080.       1.03564        9.9667       116.991    10000.0000        9.6938        2.3387 
        3120.       1.03613        9.9663       116.955    10000.0000        9.6938        2.3367 
        3160.       1.03662        9.9659       116.919    10000.0000        9.6938        2.3341 
        3200.       1.03711        9.9655       116.884    10000.0000        9.6938        2.3321 
        3240.       1.03760        9.9650       116.848    10000.0000        9.6938        2.3300 
        3280.       1.03809        9.9646       116.813    10000.0000        9.6938        2.3277 
        3320.       1.03858        9.9642       116.777    10000.0000        9.6938        2.3253 
        3360.       1.03907        9.9638       116.742    10000.0000        9.6938        2.3231 
        3400.       1.03956        9.9634       116.707    10000.0000        9.6938        2.3211 
        3440.       1.04005        9.9630       116.671    10000.0000        9.6938        2.3188 
        3480.       1.04054        9.9625       116.636    10000.0000        9.6938        2.3167 
        3520.       1.04103        9.9621       116.601    10000.0000        9.6938        2.3144 
        3560.       1.04152        9.9617       116.566    10000.0000        9.6938        2.3126 
        3600.       1.04201        9.9613       116.531    10000.0000        9.6938        2.3106 
        3640.       1.04251        9.9609       116.497    10000.0000        9.6938        2.3080 
        3680.       1.04300        9.9605       116.462    10000.0000        9.6938        2.3063 
        3720.       1.04349        9.9600       116.427    10000.0000        9.3115        2.3039 
        3760.       1.04398        9.9596       116.393    10000.0000        9.3115        2.3020 
        3800.       1.04447        9.9592       116.358    10000.0000        9.3115        2.2999 
        3840.       1.04497        9.9588       116.324    10000.0000        9.3115        2.2979 
        3880.       1.04546        9.9584       116.289    10000.0000        9.3115        2.2958 
        3920.       1.04595        9.9580       116.255    10000.0000        9.3115        2.2937 
        3960.       1.04645        9.9575       116.221    10000.0000        9.3115        2.2917 
        4000.       1.04694        9.9571       116.186    10000.0000        9.3115        2.2899 
    
 STOP
