1

                    Execution started at 20130430.104937         



                    ---------------------------------------
                                     SWAN
                    SIMULATION OF WAVES IN NEAR SHORE AREAS
                             VERSION NUMBER 40.72ABCDE          
                    ---------------------------------------


    
 $*************HEADING****************************************
    
 $
    
 PROJ 'a11refr' 'A11'
    
 $
    
 $ PURPOSE OF TEST: Test of the refraction formulation
    
 $
    
 $ --|--------------------------------------------------------------|--
    
 $   | This SWAN input file is part of the bench mark tests for     |
    
 $   | SWAN.                                                        |
    
 $ --|--------------------------------------------------------------|--
    
 $
    
 $***********MODEL INPUT**************************************
    
 $
    
 CGRID 0. 0. 0. 20000. 4000. 25 100 SECTOR 80. 130. 100 0.05 0.25 40
 Resolution in sigma-space: df/f =  0.0411
    
 $
    
 INPGRID BOTTOM 0. 0. 0. 1 1 20000. 4000.
    
 READINP BOTTOM 1. 'a11refr.bot'  1 0 FREE
    
 $
    
 BOU SHAPE GAUSS 0.01 PEAK DSPR POWER
    
 BOUN SIDE S CCW CON PAR 1. 10. 120. 500.
    
 $
    
 OFF QUAD
    
 OFF BREA
    
 OFF WCAP
    
 $
    
 $************ OUTPUT REQUESTS *************************
    
 $
    
 CURVE 'CTA11' 10000. 0.  100  10000. 4000.
    
 TABLE 'CTA11' HEAD DIST HS TM01 DIR DEP RTP DSPR
    
 TABLE 'CTA11' NOHEAD 'a11ref01.tab' DIST HS TM01 DIR DEP RTP
    
 $
    
 POINTS 'loc' FILE   'a11refr.loc'
    
 SPEC   'loc' SPEC1D 'a11ref01.spc'
    
 TABLE  'loc' HEAD   'a11ref01.tbl' HS RTP TM01 TM02 FSPR
    
 $
    
 TEST 1,0
    
 COMPUTE
 ** Warning          : Limiter is de-activated in case of no quadruplets

----------------------------------------------------------------
                  COMPUTATIONAL PART OF SWAN
----------------------------------------------------------------

 Gridresolution       : MXC              26 MYC            101
                      : MCGRD          2627
                      : MSC              41 MDC            101
                      : MTC               1
                      : NSTATC            0 ITERMX          50
 Propagation flags    : ITFRE             1 IREFR            1
 Source term flags    : IBOT              0 ISURF            0
                      : IWCAP             0 IWIND            0
                      : ITRIAD            0 IQUAD            0
 Spatial step         : DX       0.8000E+03 DY      0.4000E+02
 Spectral bin         : df/f     0.4106E-01 DDIR    0.5000E+00
 Physical constants   : GRAV     0.9810E+01 RHO     0.1025E+04
 Wind input           : WSPEED   0.0000E+00 DIR     0.0000E+00
 Tail parameters      : E(f)     0.4000E+01 E(k)    0.2500E+01
                      : A(f)     0.5000E+01 A(k)    0.3000E+01
 Accuracy parameters  : DREL     0.2000E-01 NPNTS   0.9800E+02
                      : DHOVAL   0.2000E-01 DTOVAL  0.2000E-01
                      : GRWMX    0.1000E+21
 Drying/flooding      : LEVEL    0.0000E+00 DEPMIN  0.5000E-01
 The Cartesian convention for wind and wave directions is used
 Scheme for geographic propagation is SORDUP
 Scheme geogr. space  : PROPSC            2 ICMAX            5
 Scheme spectral space: CSS      0.5000E+00 CDD     0.5000E+00
 Current is off
 Quadruplets is off
 Triads is off
 Bottom friction is off
 Whitecapping is off
 Surf breaking is off
 Set-up is off
 Diffraction is off
 Janssen (`89,`90)    : ALPHA    0.1000E-01 KAPPA   0.4100E+00
 Janssen (`89,`90)    : RHOA     0.1280E+01 RHOW    0.1025E+04
 
 1st and 2nd gen. wind: CF10     0.1880E+03 CF20    0.5900E+00
                      : CF30     0.1200E+00 CF40    0.2500E+03
                      : CF50     0.2300E-02 CF60   -0.2230E+00
                      : CF70     0.0000E+00 CF80   -0.5600E+00
                      : RHOAW    0.1249E-02 EDMLPM  0.3600E-02
                      : CDRAG    0.1230E-02 UMIN    0.1000E+01
                      : LIM_PM   0.1300E+00
 
 iteration    1; sweep 1
 iteration    1; sweep 2
 iteration    1; sweep 3
 iteration    1; sweep 4
 accuracy OK in   1.00 % of wet grid points ( 98.00 % required)

 iteration    2; sweep 1
 iteration    2; sweep 2
 iteration    2; sweep 3
 iteration    2; sweep 4
 accuracy OK in 100.00 % of wet grid points ( 98.00 % required)

 
%
%
% Run:A11   Table:CTA11             SWAN version:40.72ABCDE
%
%       Dist          Hsig          Tm01          Dir           Depth         RTpeak        Dspr     
%       [m]           [m]           [sec]         [degr]        [m]           [sec]         [degr]   
%
           0.       1.00012       10.0000       120.000       20.0000       10.0918        2.5587 
          40.       0.99999       10.0006       119.884       19.8000       10.0918        2.5549 
          80.       0.99989       10.0012       119.768       19.6000       10.0918        2.5495 
         120.       0.99980       10.0019       119.650       19.4000       10.0918        2.5438 
         160.       0.99974       10.0025       119.531       19.2000       10.0918        2.5376 
         200.       0.99970       10.0031       119.411       19.0000       10.0918        2.5313 
         240.       0.99968       10.0038       119.290       18.8000       10.0918        2.5250 
         280.       0.99968       10.0044       119.167       18.6000       10.0918        2.5187 
         320.       0.99971       10.0051       119.043       18.4000       10.0918        2.5124 
         360.       0.99976       10.0057       118.918       18.2000       10.0918        2.5065 
         400.       0.99983       10.0064       118.792       18.0000       10.0918        2.5001 
         440.       0.99994       10.0071       118.664       17.8000       10.0918        2.4937 
         480.       1.00007       10.0077       118.535       17.6000       10.0918        2.4875 
         520.       1.00022       10.0084       118.404       17.4000       10.0918        2.4809 
         560.       1.00041       10.0091       118.272       17.2000       10.0918        2.4746 
         600.       1.00062       10.0098       118.139       17.0000       10.0918        2.4677 
         640.       1.00087       10.0105       118.004       16.8000       10.0918        2.4615 
         680.       1.00114       10.0112       117.868       16.6000       10.0918        2.4550 
         720.       1.00145       10.0119       117.730       16.4000       10.0918        2.4487 
         760.       1.00179       10.0126       117.591       16.2000       10.0918        2.4421 
         800.       1.00216       10.0133       117.450       16.0000       10.0918        2.4356 
         840.       1.00257       10.0141       117.308       15.8000       10.0918        2.4290 
         880.       1.00302       10.0148       117.164       15.6000       10.0918        2.4219 
         920.       1.00350       10.0155       117.019       15.4000       10.0918        2.4161 
         960.       1.00402       10.0163       116.872       15.2000       10.0918        2.4087 
        1000.       1.00458       10.0170       116.723       15.0000       10.0918        2.4025 
        1040.       1.00518       10.0178       116.573       14.8000       10.0918        2.3954 
        1080.       1.00583       10.0185       116.421       14.6000       10.0918        2.3885 
        1120.       1.00652       10.0193       116.267       14.4000       10.0918        2.3816 
        1160.       1.00725       10.0201       116.111       14.2000       10.0918        2.3747 
        1200.       1.00803       10.0208       115.954       14.0000       10.0918        2.3677 
        1240.       1.00886       10.0216       115.795       13.8000       10.0918        2.3597 
        1280.       1.00974       10.0224       115.634       13.6000       10.0918        2.3533 
        1320.       1.01067       10.0232       115.471       13.4000       10.0918        2.3457 
        1360.       1.01166       10.0240       115.307       13.2000       10.0918        2.3383 
        1400.       1.01270       10.0248       115.140       13.0000       10.0918        2.3310 
        1440.       1.01380       10.0256       114.971       12.8000       10.0918        2.3237 
        1480.       1.01496       10.0264       114.801       12.6000       10.0918        2.3161 
        1520.       1.01619       10.0272       114.628       12.4000       10.0918        2.3087 
        1560.       1.01747       10.0280       114.453       12.2000       10.0918        2.3008 
        1600.       1.01883       10.0288       114.276       12.0000       10.0918        2.2926 
        1640.       1.02026       10.0296       114.097       11.8000       10.0918        2.2847 
        1680.       1.02176       10.0305       113.916       11.6000       10.0918        2.2764 
        1720.       1.02333       10.0313       113.732       11.4000       10.0918        2.2686 
        1760.       1.02498       10.0321       113.546       11.2000       10.0918        2.2603 
        1800.       1.02672       10.0330       113.358       11.0000       10.0918        2.2519 
        1840.       1.02854       10.0338       113.167       10.8000       10.0918        2.2432 
        1880.       1.03046       10.0347       112.974       10.6000       10.0918        2.2345 
        1920.       1.03246       10.0355       112.778       10.4000       10.0918        2.2258 
        1960.       1.03457       10.0364       112.580       10.2000       10.0918        2.2169 
        2000.       1.03677       10.0372       112.379       10.0000       10.0918        2.2079 
        2040.       1.03909       10.0381       112.175        9.8000       10.0918        2.1984 
        2080.       1.04151       10.0389       111.968        9.6000       10.0918        2.1888 
        2120.       1.04406       10.0398       111.758        9.4000       10.0918        2.1796 
        2160.       1.04673       10.0407       111.546        9.2000       10.0918        2.1700 
        2200.       1.04953       10.0415       111.330        9.0000       10.0918        2.1594 
        2240.       1.05246       10.0424       111.111        8.8000       10.0918        2.1500 
        2280.       1.05554       10.0433       110.889        8.6000       10.0918        2.1395 
        2320.       1.05877       10.0441       110.664        8.4000       10.0918        2.1295 
        2360.       1.06216       10.0450       110.435        8.2000       10.0918        2.1183 
        2400.       1.06572       10.0459       110.203        8.0000       10.0918        2.1074 
        2440.       1.06946       10.0468       109.966        7.8000       10.0918        2.0964 
        2480.       1.07339       10.0477       109.727        7.6000       10.0918        2.0851 
        2520.       1.07751       10.0486       109.483        7.4000       10.0918        2.0736 
        2560.       1.08186       10.0495       109.235        7.2000       10.0918        2.0620 
        2600.       1.08643       10.0504       108.982        7.0000       10.0918        2.0502 
        2640.       1.09124       10.0512       108.726        6.8000       10.0918        2.0375 
        2680.       1.09631       10.0521       108.464        6.6000       10.0918        2.0250 
        2720.       1.10165       10.0530       108.198        6.4000       10.0918        2.0118 
        2760.       1.10730       10.0539       107.927        6.2000       10.0918        1.9995 
        2800.       1.11326       10.0548       107.651        6.0000       10.0918        1.9857 
        2840.       1.11957       10.0557       107.369        5.8000       10.0918        1.9719 
        2880.       1.12625       10.0566       107.082        5.6000       10.0918        1.9576 
        2920.       1.13333       10.0575       106.789        5.4000       10.0918        1.9428 
        2960.       1.14084       10.0584       106.489        5.2000       10.0918        1.9278 
        3000.       1.14883       10.0593       106.183        5.0000       10.0918        1.9127 
        3040.       1.15735       10.0602       105.869        4.8000       10.0918        1.8976 
        3080.       1.16643       10.0611       105.549        4.6000       10.0918        1.8811 
        3120.       1.17614       10.0620       105.220        4.4000       10.0918        1.8654 
        3160.       1.18654       10.0629       104.883        4.2000       10.0918        1.8482 
        3200.       1.19772       10.0638       104.537        4.0000       10.0918        1.8312 
        3240.       1.20976       10.0647       104.181        3.8000       10.0918        1.8124 
        3280.       1.22276       10.0655       103.815        3.6000       10.0918        1.7941 
        3320.       1.23687       10.0665       103.438        3.4000       10.0918        1.7757 
        3360.       1.25222       10.0674       103.049        3.2000       10.0918        1.7560 
        3400.       1.26900       10.0682       102.647        3.0000       10.0918        1.7352 
        3440.       1.28744       10.0691       102.230        2.8000       10.0918        1.7145 
        3480.       1.30782       10.0700       101.797        2.6000       10.0918        1.6925 
        3520.       1.33049       10.0709       101.346        2.4000       10.0918        1.6704 
        3560.       1.35591       10.0718       100.876        2.2000       10.0918        1.6473 
        3600.       1.38469       10.0727       100.382        2.0000       10.0918        1.6235 
        3640.       1.41763       10.0736        99.863        1.8000       10.0918        1.5986 
        3680.       1.45587       10.0745        99.312        1.6000       10.0918        1.5722 
        3720.       1.50104       10.0754        98.725        1.4000       10.0918        1.5457 
        3760.       1.55560       10.0763        98.093        1.2000       10.0918        1.5171 
        3800.       1.62353       10.0772        97.405        1.0000       10.0918        1.4878 
        3840.       1.71180       10.0781        96.640        0.8000       10.0918        1.4576 
        3880.       1.83421       10.0790        95.767        0.6000       10.0918        1.4260 
        3920.       2.02408       10.0799        94.720        0.4000       10.0918        1.3962 
        3960.       2.40011       10.0808        93.309        0.2000       10.0918        1.3666 
        4000.      -9.00000       -9.0000      -999.000      -99.0000       -9.0000       -9.0000 
    
 STOP
